5c00317_s1_1.corrected.mol
  ChemDraw09112615532D

 35 37  0  0  0  0  0  0  0  0999 V2000
  -21.1514   -1.1400    0.0000 O   0  0  0  0  0  0  0  0  0  0  0  0
  -19.1804   -2.2168    0.0000 C   0  0  0  0  0  0  0  0  0  0  0  0
  -17.2324   -1.0550    0.0000 C   0  0  0  0  0  0  0  0  0  0  0  0
  -19.1806   -4.5775    0.0000 O   0  0  0  0  0  0  0  0  0  0  0  0
  -15.2459   -2.1593    0.0000 C   0  0  0  0  0  0  0  0  0  0  0  0
  -13.2962   -1.0550    0.0000 C   0  0  0  0  0  0  0  0  0  0  0  0
  -13.2962    1.2176    0.0000 C   0  0  0  0  0  0  0  0  0  0  0  0
  -15.2459    2.3219    0.0000 C   0  0  0  0  0  0  0  0  0  0  0  0
  -17.2324    1.2176    0.0000 C   0  0  0  0  0  0  0  0  0  0  0  0
  -11.2657    2.3205    0.0000 C   0  0  0  0  0  0  0  0  0  0  0  0
   -9.3591    1.1448    0.0000 O   0  0  0  0  0  0  0  0  0  0  0  0
  -11.2443    4.5775    0.0000 O   0  0  0  0  0  0  0  0  0  0  0  0
   -7.2371    2.2104    0.0000 C   0  0  0  0  0  0  0  0  0  0  0  0
   -5.4130    1.1462    0.0000 C   0  0  0  0  0  0  0  0  0  0  0  0
   -5.3386   -1.1300    0.0000 C   0  0  0  0  0  0  0  0  0  0  0  0
   -3.3303   -2.2037    0.0000 C   0  0  0  0  0  0  0  0  0  0  0  0
   -1.3962   -1.1300    0.0000 C   0  0  0  0  0  0  0  0  0  0  0  0
   -1.3962    1.1462    0.0000 C   0  0  0  0  0  0  0  0  0  0  0  0
   -3.3303    2.2199    0.0000 C   0  0  0  0  0  0  0  0  0  0  0  0
    0.6325   -2.2933    0.0000 C   0  0  0  0  0  0  0  0  0  0  0  0
    2.6401   -1.1130    0.0000 O   0  0  0  0  0  0  0  0  0  0  0  0
    5.4982   -2.2360    0.0000 C   0  0  0  0  0  0  0  0  0  0  0  0
    5.4531   -4.5618    0.0000 O   0  0  0  0  0  0  0  0  0  0  0  0
    7.3179   -1.0902    0.0000 C   0  0  0  0  0  0  0  0  0  0  0  0
    9.3745   -2.2012    0.0000 C   0  0  0  0  0  0  0  0  0  0  0  0
   11.3649   -1.0902    0.0000 C   0  0  0  0  0  0  0  0  0  0  0  0
   11.3649    1.2464    0.0000 C   0  0  0  0  0  0  0  0  0  0  0  0
    9.3745    2.3574    0.0000 C   0  0  0  0  0  0  0  0  0  0  0  0
    7.3179    1.2464    0.0000 C   0  0  0  0  0  0  0  0  0  0  0  0
   13.4606    2.4191    0.0000 C   0  0  0  0  0  0  0  0  0  0  0  0
   13.4193    4.5690    0.0000 O   0  0  0  0  0  0  0  0  0  0  0  0
   15.3375    1.1776    0.0000 O   0  0  0  0  0  0  0  0  0  0  0  0
   17.4211    2.3572    0.0000 C   0  0  0  0  0  0  0  0  0  0  0  0
   19.3441    1.1791    0.0000 C   0  0  0  0  0  0  0  0  0  0  0  0
   21.1514    2.2268    0.0000 O   0  0  0  0  0  0  0  0  0  0  0  0
  1  2  1  0        0
  2  3  1  0        0
  2  4  2  0        0
  3  5  2  0        0
  5  6  1  0        0
  6  7  2  0        0
  7  8  1  0        0
  8  9  2  0        0
  9  3  1  0        0
  7 10  1  0        0
 10 11  1  0        0
 10 12  2  0        0
 11 13  1  0        0
 13 14  1  0        0
 14 15  1  0        0
 15 16  1  0        0
 16 17  1  0        0
 17 18  1  0        0
 18 19  1  0        0
 19 14  1  0        0
 17 20  1  0        0
 20 21  1  0        0
 21 22  1  0        0
 22 23  2  0        0
 22 24  1  0        0
 24 25  2  0        0
 25 26  1  0        0
 26 27  2  0        0
 27 28  1  0        0
 28 29  2  0        0
 29 24  1  0        0
 27 30  1  0        0
 30 31  2  0        0
 30 32  1  0        0
 32 33  1  0        0
 33 34  1  0        0
 34 35  1  0        0
M  STY  1   1 SRU
M  SLB  1   1   1
M  SCN  1   1 HT 
M  SAL   1 13  22  23  24  25  26  27  28  29  30  31  32  33  34
M  SBL   1  2  23  37
M  SMT   1 m
M  SDI   1  4    4.1615   -4.1182    4.1615    2.5682
M  SDI   1  4   20.4127    3.6801   20.4127   -2.9420
M  STY  1   2 SRU
M  SLB  1   2   2
M  SCN  1   2 HT 
M  SAL   2 15   2   3   4   5   6   7   8   9  10  11  12  13  14  15  16
M  SAL   2  5  17  18  19  20  21
M  SBL   2  2   1  23
M  SMT   2 n
M  SDI   2  4  -20.1315   -5.6594  -20.1315    1.9301
M  SDI   2  4    3.4593    1.9098    3.4593   -5.6496
M  END
