5c00317_s1_3.corrected.mol
  ChemDraw09112616122D

 90102  0  0  0  0  0  0  0  0999 V2000
  -18.3012   -1.2861    0.0000 O   0  0  0  0  0  0  0  0  0  0  0  0
  -16.3323   -2.3617    0.0000 C   0  0  0  0  0  0  0  0  0  0  0  0
  -14.3864   -1.2012    0.0000 C   0  0  0  0  0  0  0  0  0  0  0  0
  -16.3325   -4.7197    0.0000 O   0  0  0  0  0  0  0  0  0  0  0  0
  -12.4022   -2.3042    0.0000 C   0  0  0  0  0  0  0  0  0  0  0  0
  -10.4546   -1.2012    0.0000 C   0  0  0  0  0  0  0  0  0  0  0  0
  -10.4546    1.0690    0.0000 C   0  0  0  0  0  0  0  0  0  0  0  0
  -12.4022    2.1721    0.0000 C   0  0  0  0  0  0  0  0  0  0  0  0
  -14.3864    1.0690    0.0000 C   0  0  0  0  0  0  0  0  0  0  0  0
   -8.4263    2.1707    0.0000 C   0  0  0  0  0  0  0  0  0  0  0  0
   -6.5218    0.9963    0.0000 O   0  0  0  0  0  0  0  0  0  0  0  0
   -8.4049    4.4252    0.0000 O   0  0  0  0  0  0  0  0  0  0  0  0
   -4.4021    2.0607    0.0000 C   0  0  0  0  0  0  0  0  0  0  0  0
   -2.5801    0.9977    0.0000 C   0  0  0  0  0  0  0  0  0  0  0  0
   -2.5058   -1.2761    0.0000 C   0  0  0  0  0  0  0  0  0  0  0  0
   -0.4997   -2.3486    0.0000 C   0  0  0  0  0  0  0  0  0  0  0  0
    1.4323   -1.2761    0.0000 C   0  0  0  0  0  0  0  0  0  0  0  0
    1.4323    0.9977    0.0000 C   0  0  0  0  0  0  0  0  0  0  0  0
   -0.4997    2.0702    0.0000 C   0  0  0  0  0  0  0  0  0  0  0  0
    3.4588   -2.4381    0.0000 C   0  0  0  0  0  0  0  0  0  0  0  0
    5.4642   -1.2591    0.0000 O   0  0  0  0  0  0  0  0  0  0  0  0
    8.3191   -2.3809    0.0000 C   0  0  0  0  0  0  0  0  0  0  0  0
    8.2741   -4.7040    0.0000 O   0  0  0  0  0  0  0  0  0  0  0  0
   10.1369   -1.2363    0.0000 C   0  0  0  0  0  0  0  0  0  0  0  0
   12.1912   -2.3461    0.0000 C   0  0  0  0  0  0  0  0  0  0  0  0
   14.1794   -1.2363    0.0000 C   0  0  0  0  0  0  0  0  0  0  0  0
   14.1794    1.0977    0.0000 C   0  0  0  0  0  0  0  0  0  0  0  0
   12.1912    2.2075    0.0000 C   0  0  0  0  0  0  0  0  0  0  0  0
   10.1369    1.0977    0.0000 C   0  0  0  0  0  0  0  0  0  0  0  0
   16.2729    2.2692    0.0000 C   0  0  0  0  0  0  0  0  0  0  0  0
   16.2316    4.4167    0.0000 O   0  0  0  0  0  0  0  0  0  0  0  0
   18.1476    1.0290    0.0000 O   0  0  0  0  0  0  0  0  0  0  0  0
   20.2290    2.2073    0.0000 C   0  0  0  0  0  0  0  0  0  0  0  0
   22.1499    1.0305    0.0000 C   0  0  0  0  0  0  0  0  0  0  0  0
   23.9552    2.0771    0.0000 O   0  0  0  0  0  0  0  0  0  0  0  0
  -20.3166   -2.3968    0.0000 C   0  0  0  0  0  0  0  0  0  0  0  0
  -22.2080   -1.4071    0.0000 C   0  0  0  0  0  0  0  0  0  0  0  0
  -24.0390   -2.2906    0.0000 O   0  0  0  0  0  0  0  0  0  0  0  0
  -26.4424   -2.1297    0.0000 C   0  0  0  0  0  0  0  0  0  0  0  0
  -27.5226   -0.0784    0.0000 C   0  0  0  0  0  0  0  0  0  0  0  0
  -29.8390   -0.0784    0.0000 C   0  0  0  0  0  0  0  0  0  0  0  0
  -31.0754   -2.1297    0.0000 N   0  0  0  0  0  0  0  0  0  0  0  0
  -29.8390   -4.1809    0.0000 C   0  0  0  0  0  0  0  0  0  0  0  0
  -27.5226   -4.1809    0.0000 C   0  0  0  0  0  0  0  0  0  0  0  0
  -31.0807    1.7265    0.0000 C   0  0  0  0  0  0  0  0  0  0  0  0
  -30.1749    3.8069    0.0000 N   0  0  0  0  0  0  0  0  0  0  0  0
  -31.9631    5.3464    0.0000 C   0  0  0  0  0  0  0  0  0  0  0  0
  -33.8528    4.1412    0.0000 C   0  0  0  0  0  0  0  0  0  0  0  0
  -33.4349    1.9679    0.0000 N   0  0  0  0  0  0  0  0  0  0  0  0
  -34.5772    0.1892    0.0000 C   0  0  0  0  0  0  0  0  0  0  0  0
  -32.0620    7.5856    0.0000 C   0  0  0  0  0  0  0  0  0  0  0  0
  -34.0506    8.6196    0.0000 C   0  0  0  0  0  0  0  0  0  0  0  0
  -35.9403    7.4144    0.0000 C   0  0  0  0  0  0  0  0  0  0  0  0
  -35.8415    5.1752    0.0000 C   0  0  0  0  0  0  0  0  0  0  0  0
  -30.7296   -6.1955    0.0000 C   0  0  0  0  0  0  0  0  0  0  0  0
  -32.9930   -6.3545    0.0000 N   0  0  0  0  0  0  0  0  0  0  0  0
  -33.5311   -8.6520    0.0000 C   0  0  0  0  0  0  0  0  0  0  0  0
  -31.5886   -9.7701    0.0000 C   0  0  0  0  0  0  0  0  0  0  0  0
  -29.8549   -8.3945    0.0000 N   0  0  0  0  0  0  0  0  0  0  0  0
  -27.7496   -8.5847    0.0000 C   0  0  0  0  0  0  0  0  0  0  0  0
  -35.4707   -9.7751    0.0000 C   0  0  0  0  0  0  0  0  0  0  0  0
  -35.4678  -12.0165    0.0000 C   0  0  0  0  0  0  0  0  0  0  0  0
  -33.5253  -13.1347    0.0000 C   0  0  0  0  0  0  0  0  0  0  0  0
  -31.5857  -12.0115    0.0000 C   0  0  0  0  0  0  0  0  0  0  0  0
   26.5169    2.0823    0.0000 C   0  0  0  0  0  0  0  0  0  0  0  0
   27.5120    4.1761    0.0000 C   0  0  0  0  0  0  0  0  0  0  0  0
   29.8265    4.2712    0.0000 C   0  0  0  0  0  0  0  0  0  0  0  0
   31.1460    2.2724    0.0000 N   0  0  0  0  0  0  0  0  0  0  0  0
   29.9948    0.1722    0.0000 C   0  0  0  0  0  0  0  0  0  0  0  0
   27.6803    0.0772    0.0000 C   0  0  0  0  0  0  0  0  0  0  0  0
   30.9930    6.1256    0.0000 C   0  0  0  0  0  0  0  0  0  0  0  0
   30.0027    8.1670    0.0000 N   0  0  0  0  0  0  0  0  0  0  0  0
   31.7262    9.7786    0.0000 C   0  0  0  0  0  0  0  0  0  0  0  0
   33.6638    8.6520    0.0000 C   0  0  0  0  0  0  0  0  0  0  0  0
   33.3354    6.4633    0.0000 N   0  0  0  0  0  0  0  0  0  0  0  0
   34.5497    4.7330    0.0000 C   0  0  0  0  0  0  0  0  0  0  0  0
   31.7331   12.0200    0.0000 C   0  0  0  0  0  0  0  0  0  0  0  0
   33.6776   13.1347    0.0000 C   0  0  0  0  0  0  0  0  0  0  0  0
   35.6152   12.0080    0.0000 C   0  0  0  0  0  0  0  0  0  0  0  0
   35.6083    9.7666    0.0000 C   0  0  0  0  0  0  0  0  0  0  0  0
   30.9673   -1.8042    0.0000 C   0  0  0  0  0  0  0  0  0  0  0  0
   33.2353   -1.8702    0.0000 N   0  0  0  0  0  0  0  0  0  0  0  0
   33.8672   -4.1436    0.0000 C   0  0  0  0  0  0  0  0  0  0  0  0
   31.9722   -5.3405    0.0000 C   0  0  0  0  0  0  0  0  0  0  0  0
   30.1835   -4.0372    0.0000 N   0  0  0  0  0  0  0  0  0  0  0  0
   28.0878   -4.3137    0.0000 C   0  0  0  0  0  0  0  0  0  0  0  0
   35.8513   -5.1863    0.0000 C   0  0  0  0  0  0  0  0  0  0  0  0
   35.9403   -7.4259    0.0000 C   0  0  0  0  0  0  0  0  0  0  0  0
   34.0453   -8.6228    0.0000 C   0  0  0  0  0  0  0  0  0  0  0  0
   32.0613   -7.5801    0.0000 C   0  0  0  0  0  0  0  0  0  0  0  0
  1  2  1  0        0
  2  3  1  0        0
  2  4  2  0        0
  3  5  2  0        0
  5  6  1  0        0
  6  7  2  0        0
  7  8  1  0        0
  8  9  2  0        0
  9  3  1  0        0
  7 10  1  0        0
 10 11  1  0        0
 10 12  2  0        0
 11 13  1  0        0
 13 14  1  0        0
 14 15  1  0        0
 15 16  1  0        0
 16 17  1  0        0
 17 18  1  0        0
 18 19  1  0        0
 19 14  1  0        0
 17 20  1  0        0
 20 21  1  0        0
 21 22  1  0        0
 22 23  2  0        0
 22 24  1  0        0
 24 25  2  0        0
 25 26  1  0        0
 26 27  2  0        0
 27 28  1  0        0
 28 29  2  0        0
 29 24  1  0        0
 27 30  1  0        0
 30 31  2  0        0
 30 32  1  0        0
 32 33  1  0        0
 33 34  1  0        0
 34 35  1  0        0
  1 36  1  0        0
 36 37  1  0        0
 37 38  1  0        0
 38 39  1  0        0
 39 40  2  0        0
 40 41  1  0        0
 41 42  2  0        0
 42 43  1  0        0
 43 44  2  0        0
 44 39  1  0        0
 41 45  1  0        0
 45 46  2  0        0
 46 47  1  0        0
 47 48  2  0        0
 48 49  1  0        0
 49 45  1  0        0
 49 50  1  0        0
 47 51  1  0        0
 51 52  2  0        0
 52 53  1  0        0
 53 54  2  0        0
 54 48  1  0        0
 55 56  2  0        0
 56 57  1  0        0
 57 58  2  0        0
 58 59  1  0        0
 59 55  1  0        0
 59 60  1  0        0
 57 61  1  0        0
 61 62  2  0        0
 62 63  1  0        0
 63 64  2  0        0
 64 58  1  0        0
 55 43  1  0        0
 65 66  2  0        0
 66 67  1  0        0
 67 68  2  0        0
 68 69  1  0        0
 69 70  2  0        0
 70 65  1  0        0
 67 71  1  0        0
 71 72  2  0        0
 72 73  1  0        0
 73 74  2  0        0
 74 75  1  0        0
 75 71  1  0        0
 75 76  1  0        0
 73 77  1  0        0
 77 78  2  0        0
 78 79  1  0        0
 79 80  2  0        0
 80 74  1  0        0
 81 82  2  0        0
 82 83  1  0        0
 83 84  2  0        0
 84 85  1  0        0
 85 81  1  0        0
 85 86  1  0        0
 83 87  1  0        0
 87 88  2  0        0
 88 89  1  0        0
 89 90  2  0        0
 90 84  1  0        0
 81 69  1  0        0
 35 65  1  0        0
M  STY  1   1 SRU
M  SLB  1   1   1
M  SCN  1   1 HT 
M  SAL   1 15   2   3   4   5   6   7   8   9  10  11  12  13  14  15  16
M  SAL   1  5  17  18  19  20  21
M  SBL   1  2   1  23
M  SMT   1 s
M  SDI   1  4  -17.2824   -5.8004  -17.2824    1.7807
M  SDI   1  4    6.2826    1.7604    6.2826   -5.7907
M  STY  1   2 SRU
M  SLB  1   2   2
M  SCN  1   2 HT 
M  SAL   2 13  22  23  24  25  26  27  28  29  30  31  32  33  34
M  SBL   2  2  23  37
M  SMT   2 p
M  SDI   2  4    6.9839   -4.2609    6.9839    2.4181
M  SDI   2  4   22.6322    3.6124   22.6322   -3.0025
M  END
