5c00317_s1_2.corrected.mol
  ChemDraw09112616002D

 38 40  0  0  0  0  0  0  0  0999 V2000
  -18.0087   -1.1388    0.0000 O   0  0  0  0  0  0  0  0  0  0  0  0
  -16.0398   -2.2144    0.0000 C   0  0  0  0  0  0  0  0  0  0  0  0
  -14.0939   -1.0539    0.0000 C   0  0  0  0  0  0  0  0  0  0  0  0
  -16.0400   -4.5725    0.0000 O   0  0  0  0  0  0  0  0  0  0  0  0
  -12.1096   -2.1569    0.0000 C   0  0  0  0  0  0  0  0  0  0  0  0
  -10.1620   -1.0539    0.0000 C   0  0  0  0  0  0  0  0  0  0  0  0
  -10.1620    1.2163    0.0000 C   0  0  0  0  0  0  0  0  0  0  0  0
  -12.1096    2.3194    0.0000 C   0  0  0  0  0  0  0  0  0  0  0  0
  -14.0939    1.2163    0.0000 C   0  0  0  0  0  0  0  0  0  0  0  0
   -8.1337    2.3180    0.0000 C   0  0  0  0  0  0  0  0  0  0  0  0
   -6.2292    1.1436    0.0000 O   0  0  0  0  0  0  0  0  0  0  0  0
   -8.1123    4.5725    0.0000 O   0  0  0  0  0  0  0  0  0  0  0  0
   -4.1095    2.2080    0.0000 C   0  0  0  0  0  0  0  0  0  0  0  0
   -2.2874    1.1450    0.0000 C   0  0  0  0  0  0  0  0  0  0  0  0
   -2.2131   -1.1288    0.0000 C   0  0  0  0  0  0  0  0  0  0  0  0
   -0.2070   -2.2013    0.0000 C   0  0  0  0  0  0  0  0  0  0  0  0
    1.7250   -1.1288    0.0000 C   0  0  0  0  0  0  0  0  0  0  0  0
    1.7250    1.1450    0.0000 C   0  0  0  0  0  0  0  0  0  0  0  0
   -0.2070    2.2175    0.0000 C   0  0  0  0  0  0  0  0  0  0  0  0
    3.7515   -2.2908    0.0000 C   0  0  0  0  0  0  0  0  0  0  0  0
    5.7569   -1.1118    0.0000 O   0  0  0  0  0  0  0  0  0  0  0  0
    8.6119   -2.2336    0.0000 C   0  0  0  0  0  0  0  0  0  0  0  0
    8.5669   -4.5568    0.0000 O   0  0  0  0  0  0  0  0  0  0  0  0
   10.4297   -1.0890    0.0000 C   0  0  0  0  0  0  0  0  0  0  0  0
   12.4840   -2.1988    0.0000 C   0  0  0  0  0  0  0  0  0  0  0  0
   14.4722   -1.0890    0.0000 C   0  0  0  0  0  0  0  0  0  0  0  0
   14.4722    1.2450    0.0000 C   0  0  0  0  0  0  0  0  0  0  0  0
   12.4840    2.3548    0.0000 C   0  0  0  0  0  0  0  0  0  0  0  0
   10.4297    1.2450    0.0000 C   0  0  0  0  0  0  0  0  0  0  0  0
   16.5657    2.4165    0.0000 C   0  0  0  0  0  0  0  0  0  0  0  0
   16.5244    4.5640    0.0000 O   0  0  0  0  0  0  0  0  0  0  0  0
   18.4405    1.1763    0.0000 O   0  0  0  0  0  0  0  0  0  0  0  0
   20.5219    2.3546    0.0000 C   0  0  0  0  0  0  0  0  0  0  0  0
   22.4428    1.1778    0.0000 C   0  0  0  0  0  0  0  0  0  0  0  0
   24.2481    2.2244    0.0000 O   0  0  0  0  0  0  0  0  0  0  0  0
  -20.0241   -2.2495    0.0000 C   0  0  0  0  0  0  0  0  0  0  0  0
  -21.9155   -1.2598    0.0000 C   0  0  0  0  0  0  0  0  0  0  0  0
  -24.2481   -2.3105    0.0000 O   0  0  0  0  0  0  0  0  0  0  0  0
  1  2  1  0        0
  2  3  1  0        0
  2  4  2  0        0
  3  5  2  0        0
  5  6  1  0        0
  6  7  2  0        0
  7  8  1  0        0
  8  9  2  0        0
  9  3  1  0        0
  7 10  1  0        0
 10 11  1  0        0
 10 12  2  0        0
 11 13  1  0        0
 13 14  1  0        0
 14 15  1  0        0
 15 16  1  0        0
 16 17  1  0        0
 17 18  1  0        0
 18 19  1  0        0
 19 14  1  0        0
 17 20  1  0        0
 20 21  1  0        0
 21 22  1  0        0
 22 23  2  0        0
 22 24  1  0        0
 24 25  2  0        0
 25 26  1  0        0
 26 27  2  0        0
 27 28  1  0        0
 28 29  2  0        0
 29 24  1  0        0
 27 30  1  0        0
 30 31  2  0        0
 30 32  1  0        0
 32 33  1  0        0
 33 34  1  0        0
 34 35  1  0        0
  1 36  1  0        0
 36 37  1  0        0
 37 38  1  0        0
M  STY  1   1 SRU
M  SLB  1   1   1
M  SCN  1   1 HT 
M  SAL   1 15   2   3   4   5   6   7   8   9  10  11  12  13  14  15  16
M  SAL   1  5  17  18  19  20  21
M  SBL   1  2   1  23
M  SMT   1 s
M  SDI   1  4  -16.9899   -5.6532  -16.9899    1.9280
M  SDI   1  4    6.5753    1.9077    6.5753   -5.6435
M  STY  1   2 SRU
M  SLB  1   2   2
M  SCN  1   2 HT 
M  SAL   2 13  22  23  24  25  26  27  28  29  30  31  32  33  34
M  SBL   2  2  23  37
M  SMT   2 p
M  SDI   2  4    7.2767   -4.1137    7.2767    2.5654
M  SDI   2  4   23.5102    3.6761   23.5102   -2.9388
M  END
