bigsmiles_si_323.corrected.mol
  ChemDraw09112617402D

 18 17  0  0  0  0  0  0  0  0999 V2000
  -15.7948   -6.1934    0.0000 C   0  0  0  0  0  0  0  0  0  0  0  0
  -12.7863   -8.1676    0.0000 C   0  0  0  0  0  0  0  0  0  0  0  0
   -9.2764   -6.1934    0.0000 C   0  0  0  0  0  0  0  0  0  0  0  0
   -4.8175   -8.6151    0.0000 C   0  0  0  0  0  0  0  0  0  0  0  0
   -1.3076   -6.6409    0.0000 C   0  0  0  0  0  0  0  0  0  0  0  0
    1.7549   -8.1676    0.0000 C   0  0  0  0  0  0  0  0  0  0  0  0
    5.2648   -6.1934    0.0000 C   0  0  0  0  0  0  0  0  0  0  0  0
    8.7750   -8.1676    0.0000 C   0  0  0  0  0  0  0  0  0  0  0  0
   12.2849   -6.1934    0.0000 C   0  0  0  0  0  0  0  0  0  0  0  0
   15.7948   -8.1676    0.0000 C   0  0  0  0  0  0  0  0  0  0  0  0
    5.2648   -2.2444    0.0000 C   0  0  0  0  0  0  0  0  0  0  0  0
    8.7750    0.0591    0.0000 N   0  3  0  0  0  0  0  0  0  0  0  0
    9.2764    4.0081    0.0000 C   0  0  0  0  0  0  0  0  0  0  0  0
   13.2878    4.9953    0.0000 N   0  0  0  0  0  0  0  0  0  0  0  0
   14.7920    8.6151    0.0000 C   0  0  0  0  0  0  0  0  0  0  0  0
   15.2933    1.3753    0.0000 C   0  0  0  0  0  0  0  0  0  0  0  0
   12.7863   -1.9154    0.0000 C   0  0  0  0  0  0  0  0  0  0  0  0
    3.9413    3.0249    0.0000 Br  0  5  0  0  0  0  0  0  0  0  0  0
  1  2  2  0        0
  2  3  1  0        0
  4  5  2  0        0
  5  6  1  0        0
  7  8  1  0        0
  7 11  1  0        0
  9 10  2  0        0
 11 12  1  0        0
 12 13  2  0        0
 12 17  1  0        0
 13 14  1  0        0
 14 15  1  0        0
 14 16  1  0        0
 16 17  2  0        0
  3  4  1  0        0
  6  7  1  0        0
  8  9  1  0        0
M  CHG  2  12   1  18  -1
M  STY  1   1 GEN
M  SLB  1   1   1
M  SAL   1 12   5   6   7   8   9  11  12  13  14  15  16  17
M  SBL   1  2   3   7
M  SDI   1  4   -2.1217  -12.1430   -2.1217   -3.6660
M  SDI   1  4   14.2905   -3.8896   14.2905  -12.1166
M  STY  1   2 GEN
M  SLB  1   2   2
M  SAL   2  1   8
M  SBL   2  2   5  17
M  SDI   2  4    7.5677   -9.8302    7.5677   -6.6079
M  SDI   2  4   10.0641   -6.6417   10.0641   -9.8641
M  STY  1   3 GEN
M  SLB  1   3   3
M  SAL   3  1   6
M  SBL   3  2   4  16
M  SDI   3  4    0.5740   -9.9881    0.5740   -6.7658
M  SDI   3  4    3.0704   -6.7996    3.0704  -10.0220
M  STY  1   4 GEN
M  SLB  1   4   4
M  SAL   4  3   2   3   4
M  SBL   4  2   1   3
M  SDI   4  4  -14.2905  -12.1166  -14.2905   -3.8896
M  SDI   4  4   -2.9879   -3.6139   -3.0047  -12.0818
M  STY  1   5 GEN
M  SLB  1   5   5
M  SAL   5  1   3
M  SBL   5  2   2  15
M  SDI   5  4  -10.1120   -8.4959  -10.1120   -5.2251
M  SDI   5  4   -7.8392   -5.2407   -7.8392   -8.5115
M  END
